39

O      7.323868    0.262205    1.007571
N      6.555807    0.854556    0.248852
O      7.007473    1.906967   -0.483527
C      5.204574    0.451909    0.120679
C      4.352670    1.068514   -0.770390
C      3.044834    0.680767   -0.913998
C      2.508541   -0.367039   -0.157714
C      1.116230   -0.774054   -0.362240
N      0.671007   -1.952957   -0.796584
N     -0.626013   -1.908250   -0.823976
C     -1.098801   -0.712490   -0.416428
C     -2.500727   -0.373900   -0.211781
C     -3.340589   -1.330118    0.342588
C     -4.677359   -1.137256    0.598895
C     -5.219359    0.085619    0.284771
N     -6.597109    0.336232    0.543147
O     -7.079817    1.468994    0.264285
O     -7.357321   -0.650287    1.084869
C     -4.420683    1.059934   -0.271813
C     -3.058838    0.835832   -0.527128
N     -2.370282    1.876537   -1.222269
O     -2.727901    3.048861   -1.021666
O     -1.340440    1.640639   -2.091081
C      0.024303    0.039939   -0.107119
N      0.074377    1.334989    0.492643
O     -0.451752    1.469651    1.637708
O      0.636694    2.432517   -0.048275
C      3.335913   -0.994288    0.733695
N      2.868350   -2.042597    1.567327
O      3.425209   -2.177879    2.690451
O      1.875068   -2.914220    1.286943
C      4.667839   -0.578589    0.861420
H      4.805349    1.891584   -1.346602
H      2.404827    1.173157   -1.622629
H     -1.225623   -2.737643   -1.137254
H     -2.936756   -2.285853    0.595854
H     -5.310181   -1.912332    1.041707
H     -4.852483    2.042572   -0.524291
H      5.289099   -1.112224    1.577861
